tests/data/state_estimation/meshed-network-observability/07-observable-2-voltage-sensors/input.json
{
  "version": "1.0",
  "type": "input",
  "is_batch": false,
  "attributes": {},
  "data": {
    "source": [
      {"id": 0, "node": 2, "status": 1, "u_ref": 1.0},
      {"id": 1, "node": 7, "status": 1, "u_ref": 1.0}
    ],
    "node": [
      {"id": 2, "u_rated": 10000},
      {"id": 3, "u_rated": 10000},
      {"id": 4, "u_rated": 10000},
      {"id": 5, "u_rated": 10000},
      {"id": 6, "u_rated": 10000},
      {"id": 7, "u_rated": 10000}
    ],
    "line": [
      {"id": 8, "from_node": 2, "to_node": 3, "from_status": 1, "to_status": 1, "r1": 0.1, "x1": 0.0, "c1": 0.0, "tan1": 0.0, "i_n": 500},
      {"id": 9, "from_node": 3, "to_node": 4, "from_status": 1, "to_status": 1, "r1": 0.1, "x1": 0.0, "c1": 0.0, "tan1": 0.0, "i_n": 500},
      {"id": 10, "from_node": 3, "to_node": 5, "from_status": 1, "to_status": 1, "r1": 0.1, "x1": 0.0, "c1": 0.0, "tan1": 0.0, "i_n": 500},
      {"id": 11, "from_node": 4, "to_node": 6, "from_status": 1, "to_status": 1, "r1": 0.1, "x1": 0.0, "c1": 0.0, "tan1": 0.0, "i_n": 500},
      {"id": 12, "from_node": 5, "to_node": 6, "from_status": 1, "to_status": 1, "r1": 0.1, "x1": 0.0, "c1": 0.0, "tan1": 0.0, "i_n": 500},
      {"id": 13, "from_node": 6, "to_node": 7, "from_status": 1, "to_status": 1, "r1": 0.1, "x1": 0.0, "c1": 0.0, "tan1": 0.0, "i_n": 500}
    ],
    "sym_voltage_sensor": [
      {"id": 14, "measured_object": 2, "u_sigma": 1, "u_measured": 10000, "u_angle_measured": 0},
      {"id": 15, "measured_object": 7, "u_sigma": 1, "u_measured": 10000, "u_angle_measured": 0}
    ]
  }
}